<?xml version="1.0" encoding="UTF-8"?>

<!-- generated on 2025-03-12 14:17:12.604854 by osmWebWizard.py v1_21_0+0000-d7b3b481c43
<configuration>
    <net-file value="C:\Users\dionisis\Sumo\2025-03-12-14-17-11\osm.net.xml.gz"/>
    <output-trip-file value="C:\Users\dionisis\Sumo\2025-03-12-14-17-11\osm.passenger.trips.xml"/>
    <route-file value="C:\Users\dionisis\Sumo\2025-03-12-14-17-11\osm.passenger.rou.xml"/>
    <prefix value="veh"/>
    <trip-attributes value="departLane=&quot;best&quot;"/>
    <fringe-start-attributes value="departSpeed=&quot;max&quot;"/>
    <vehicle-class value="passenger"/>
    <lanes value="True"/>
    <fringe-factor value="5"/>
    <allow-fringe.min-length value="1000.0"/>
    <via-edge-types value="highway.motorway,highway.motorway_link,highway.trunk_link,highway.primary_link,highway.secondary_link,highway.tertiary_link"/>
    <min-distance value="300.0"/>
    <min-distance.fringe value="10.0"/>
    <remove-loops value="True"/>
    <validate value="True"/>
    <insertion-density value="500.0"/>
</configuration>
-->

<!-- generated on 2025-03-12 14:17:12 by Eclipse SUMO duarouter Version 1.21.0
<duarouterConfiguration xmlns:xsi="http://www.w3.org/2001/XMLSchema-instance" xsi:noNamespaceSchemaLocation="http://sumo.dlr.de/xsd/duarouterConfiguration.xsd">

    <input>
        <net-file value="C:\Users\dionisis\Sumo\2025-03-12-14-17-11\osm.net.xml.gz"/>
        <route-files value="C:\Users\dionisis\Sumo\2025-03-12-14-17-11\osm.passenger.trips.xml"/>
    </input>

    <output>
        <output-file value="C:\Users\dionisis\Sumo\2025-03-12-14-17-11\osm.passenger.trips.xml.tmp"/>
        <alternatives-output value="NUL"/>
        <write-trips value="true"/>
    </output>

    <processing>
        <remove-loops value="true"/>
    </processing>

    <time>
        <begin value="0.0"/>
        <end value="3600.0"/>
    </time>

    <report>
        <no-warnings value="true"/>
        <ignore-errors value="true"/>
        <no-step-log value="true"/>
    </report>

</duarouterConfiguration>
-->

<routes xmlns:xsi="http://www.w3.org/2001/XMLSchema-instance" xsi:noNamespaceSchemaLocation="http://sumo.dlr.de/xsd/routes_file.xsd">
    <vType id="veh_passenger" vClass="passenger"/>
    <trip id="veh0" type="veh_passenger" depart="0.00" departLane="best" from="330617202#2" to="328436322"/>
    <trip id="veh1" type="veh_passenger" depart="1.03" departLane="best" from="756783039#4" to="243323310#2"/>
    <trip id="veh3" type="veh_passenger" depart="3.08" departLane="best" departSpeed="max" from="756783039#0" to="-746884497"/>
    <trip id="veh4" type="veh_passenger" depart="4.11" departLane="best" departSpeed="max" from="756783039#0" to="756776433#2"/>
    <trip id="veh5" type="veh_passenger" depart="5.13" departLane="best" departSpeed="max" from="243323308#0" to="243323310#4"/>
    <trip id="veh6" type="veh_passenger" depart="6.16" departLane="best" departSpeed="max" from="756783039#0" to="756776433#4"/>
    <trip id="veh8" type="veh_passenger" depart="8.21" departLane="best" departSpeed="max" from="243323308#0" to="328436322"/>
    <trip id="veh9" type="veh_passenger" depart="9.24" departLane="best" departSpeed="max" from="243323308#0" to="330617202#4"/>
    <trip id="veh10" type="veh_passenger" depart="10.26" departLane="best" from="43453111" to="328436322"/>
    <trip id="veh12" type="veh_passenger" depart="12.32" departLane="best" from="756776433#1" to="756776433#13"/>
    <trip id="veh13" type="veh_passenger" depart="13.34" departLane="best" departSpeed="max" from="330617202#0" to="-746884499#0"/>
    <trip id="veh14" type="veh_passenger" depart="14.37" departLane="best" departSpeed="max" from="330617202#0" to="330617202#0"/>
    <trip id="veh15" type="veh_passenger" depart="15.40" departLane="best" from="43544025#0" to="328436322"/>
    <trip id="veh17" type="veh_passenger" depart="17.45" departLane="best" departSpeed="max" from="243323308#0" to="-746884499#1"/>
    <trip id="veh18" type="veh_passenger" depart="18.47" departLane="best" from="243323308#1" to="756776433#13"/>
    <trip id="veh19" type="veh_passenger" depart="19.50" departLane="best" departSpeed="max" from="756783039#0" to="43544025#1"/>
    <trip id="veh21" type="veh_passenger" depart="21.55" departLane="best" from="756776433#5" to="746884500#3"/>
    <trip id="veh22" type="veh_passenger" depart="22.58" departLane="best" from="330617202#1" to="756776433#13"/>
    <trip id="veh23" type="veh_passenger" depart="23.61" departLane="best" departSpeed="max" from="746884499#0" to="31758225#3"/>
    <trip id="veh24" type="veh_passenger" depart="24.63" departLane="best" departSpeed="max" from="43363730#0" to="756776433#13"/>
    <trip id="veh25" type="veh_passenger" depart="25.66" departLane="best" departSpeed="max" from="756783039#0" to="746884500#3"/>
    <trip id="veh26" type="veh_passenger" depart="26.69" departLane="best" departSpeed="max" from="756783039#0" to="746884500#3"/>
    <trip id="veh27" type="veh_passenger" depart="27.71" departLane="best" departSpeed="max" from="-43453112" to="756783039#9"/>
    <trip id="veh28" type="veh_passenger" depart="28.74" departLane="best" departSpeed="max" from="43363730#0" to="1139540285"/>
    <trip id="veh29" type="veh_passenger" depart="29.77" departLane="best" departSpeed="max" from="243323308#0" to="746884500#0"/>
    <trip id="veh30" type="veh_passenger" depart="30.79" departLane="best" departSpeed="max" from="243323308#0" to="756776433#6"/>
    <trip id="veh31" type="veh_passenger" depart="31.82" departLane="best" departSpeed="max" from="756783039#0" to="243323310#5"/>
    <trip id="veh32" type="veh_passenger" depart="32.84" departLane="best" departSpeed="max" from="330617202#0" to="756783039#5"/>
    <trip id="veh36" type="veh_passenger" depart="36.95" departLane="best" departSpeed="max" from="243323310#0" to="328436322"/>
    <trip id="veh37" type="veh_passenger" depart="37.98" departLane="best" departSpeed="max" from="330617202#0" to="328436322"/>
    <trip id="veh38" type="veh_passenger" depart="39.00" departLane="best" departSpeed="max" from="243323308#0" to="756776433#13"/>
    <trip id="veh39" type="veh_passenger" depart="40.03" departLane="best" departSpeed="max" from="330617202#0" to="756783039#7"/>
    <trip id="veh40" type="veh_passenger" depart="41.06" departLane="best" from="756783039#2" to="-746884499#1"/>
    <trip id="veh41" type="veh_passenger" depart="42.08" departLane="best" departSpeed="max" from="330617202#0" to="756776433#13"/>
    <trip id="veh42" type="veh_passenger" depart="43.11" departLane="best" departSpeed="max" from="746884499#0" to="756776433#8"/>
    <trip id="veh43" type="veh_passenger" depart="44.13" departLane="best" departSpeed="max" from="756783039#0" to="31758225#3"/>
    <trip id="veh44" type="veh_passenger" depart="45.16" departLane="best" departSpeed="max" from="243323308#0" to="43544025#4"/>
    <trip id="veh45" type="veh_passenger" depart="46.19" departLane="best" from="756776433#8" to="756776433#13"/>
    <trip id="veh46" type="veh_passenger" depart="47.21" departLane="best" from="43544025#0" to="43453112"/>
    <trip id="veh48" type="veh_passenger" depart="49.27" departLane="best" departSpeed="max" from="330617202#0" to="756783039#8"/>
    <trip id="veh49" type="veh_passenger" depart="50.29" departLane="best" departSpeed="max" from="746884499#0" to="328436322"/>
    <trip id="veh50" type="veh_passenger" depart="51.32" departLane="best" departSpeed="max" from="330617202#0" to="756776433#8"/>
    <trip id="veh51" type="veh_passenger" depart="52.35" departLane="best" departSpeed="max" from="243323310#0" to="43363730#3"/>
    <trip id="veh52" type="veh_passenger" depart="53.37" departLane="best" from="746884497" to="756776433#10"/>
    <trip id="veh53" type="veh_passenger" depart="54.40" departLane="best" departSpeed="max" from="746884499#0" to="756783039#4"/>
    <trip id="veh54" type="veh_passenger" depart="55.42" departLane="best" departSpeed="max" from="243323310#0" to="972891104#2"/>
    <trip id="veh55" type="veh_passenger" depart="56.45" departLane="best" departSpeed="max" from="243323308#0" to="31758225#3"/>
    <trip id="veh56" type="veh_passenger" depart="57.48" departLane="best" departSpeed="max" from="330617202#0" to="243323310#5"/>
    <trip id="veh58" type="veh_passenger" depart="59.53" departLane="best" departSpeed="max" from="330617202#0" to="43544023#3"/>
    <trip id="veh59" type="veh_passenger" depart="60.56" departLane="best" departSpeed="max" from="243323308#0" to="756776433#0"/>
    <trip id="veh60" type="veh_passenger" depart="61.58" departLane="best" departSpeed="max" from="243323308#0" to="328436322"/>
    <trip id="veh61" type="veh_passenger" depart="62.61" departLane="best" departSpeed="max" from="330617202#0" to="756783039#9"/>
    <trip id="veh62" type="veh_passenger" depart="63.64" departLane="best" departSpeed="max" from="243323310#0" to="243323310#5"/>
    <trip id="veh63" type="veh_passenger" depart="64.66" departLane="best" from="330617202#1" to="756776433#12"/>
    <trip id="veh64" type="veh_passenger" depart="65.69" departLane="best" from="756783039#1" to="243323310#3"/>
    <trip id="veh65" type="veh_passenger" depart="66.71" departLane="best" departSpeed="max" from="243323308#0" to="756783039#6"/>
    <trip id="veh66" type="veh_passenger" depart="67.74" departLane="best" departSpeed="max" from="243323310#0" to="243323310#5"/>
    <trip id="veh67" type="veh_passenger" depart="68.77" departLane="best" from="756783039#5" to="328436322"/>
    <trip id="veh68" type="veh_passenger" depart="69.79" departLane="best" departSpeed="max" from="330617202#0" to="330617202#1"/>
    <trip id="veh69" type="veh_passenger" depart="70.82" departLane="best" departSpeed="max" from="756783039#0" to="756783039#6"/>
    <trip id="veh70" type="veh_passenger" depart="71.85" departLane="best" from="43544025#1" to="756776433#13"/>
    <trip id="veh71" type="veh_passenger" depart="72.87" departLane="best" departSpeed="max" from="243323310#0" to="756783039#9"/>
    <trip id="veh72" type="veh_passenger" depart="73.90" departLane="best" departSpeed="max" from="43363730#0" to="756783039#9"/>
    <trip id="veh73" type="veh_passenger" depart="74.93" departLane="best" departSpeed="max" from="756783039#0" to="330617202#3"/>
    <trip id="veh74" type="veh_passenger" depart="75.95" departLane="best" departSpeed="max" from="756783039#0" to="243323310#5"/>
    <trip id="veh75" type="veh_passenger" depart="76.98" departLane="best" from="746884497" to="43453111"/>
    <trip id="veh76" type="veh_passenger" depart="78.00" departLane="best" departSpeed="max" from="756783039#0" to="328436322"/>
    <trip id="veh77" type="veh_passenger" depart="79.03" departLane="best" from="756783039#6" to="746884500#3"/>
    <trip id="veh78" type="veh_passenger" depart="80.06" departLane="best" from="756783039#9" to="31758225#3"/>
    <trip id="veh80" type="veh_passenger" depart="82.11" departLane="best" departSpeed="max" from="330617202#0" to="756776433#3"/>
    <trip id="veh81" type="veh_passenger" depart="83.14" departLane="best" from="43453111" to="-746884499#1"/>
    <trip id="veh82" type="veh_passenger" depart="84.16" departLane="best" departSpeed="max" from="243323310#0" to="43544025#1"/>
    <trip id="veh83" type="veh_passenger" depart="85.19" departLane="best" from="756783039#7" to="756776433#13"/>
    <trip id="veh85" type="veh_passenger" depart="87.24" departLane="best" departSpeed="max" from="756783039#0" to="31758225#2"/>
    <trip id="veh86" type="veh_passenger" depart="88.27" departLane="best" departSpeed="max" from="756783039#0" to="756776433#6"/>
    <trip id="veh87" type="veh_passenger" depart="89.30" departLane="best" from="756776433#5" to="328436322"/>
    <trip id="veh88" type="veh_passenger" depart="90.32" departLane="best" departSpeed="max" from="330617202#0" to="746884499#1"/>
    <trip id="veh89" type="veh_passenger" depart="91.35" departLane="best" from="756783039#2" to="-746884499#1"/>
    <trip id="veh90" type="veh_passenger" depart="92.37" departLane="best" from="43544025#2" to="756776433#13"/>
    <trip id="veh91" type="veh_passenger" depart="93.40" departLane="best" departSpeed="max" from="746884499#0" to="328436322"/>
    <trip id="veh92" type="veh_passenger" depart="94.43" departLane="best" departSpeed="max" from="330617202#0" to="756783039#3"/>
    <trip id="veh93" type="veh_passenger" depart="95.45" departLane="best" from="582380623" to="756776433#9"/>
    <trip id="veh94" type="veh_passenger" depart="96.48" departLane="best" from="756776433#8" to="746884500#3"/>
    <trip id="veh95" type="veh_passenger" depart="97.51" departLane="best" departSpeed="max" from="756783039#0" to="756776433#0"/>
    <trip id="veh96" type="veh_passenger" depart="98.53" departLane="best" departSpeed="max" from="330617202#0" to="756776433#13"/>
    <trip id="veh97" type="veh_passenger" depart="99.56" departLane="best" departSpeed="max" from="756783039#0" to="746884500#3"/>
    <trip id="veh99" type="veh_passenger" depart="101.61" departLane="best" departSpeed="max" from="330617202#0" to="330617202#4"/>
    <trip id="veh100" type="veh_passenger" depart="102.64" departLane="best" from="756776433#0" to="756776433#12"/>
    <trip id="veh102" type="veh_passenger" depart="104.69" departLane="best" departSpeed="max" from="43363730#0" to="756776433#13"/>
    <trip id="veh103" type="veh_passenger" depart="105.72" departLane="best" departSpeed="max" from="243323310#0" to="756776433#0"/>
    <trip id="veh104" type="veh_passenger" depart="106.74" departLane="best" departSpeed="max" from="756783039#0" to="43544023#3"/>
    <trip id="veh105" type="veh_passenger" depart="107.77" departLane="best" departSpeed="max" from="330617202#0" to="243323310#2"/>
    <trip id="veh106" type="veh_passenger" depart="108.80" departLane="best" departSpeed="max" from="-43453112" to="746884500#3"/>
    <trip id="veh107" type="veh_passenger" depart="109.82" departLane="best" departSpeed="max" from="243323310#0" to="756776433#13"/>
    <trip id="veh108" type="veh_passenger" depart="110.85" departLane="best" from="756776433#1" to="328436322"/>
    <trip id="veh109" type="veh_passenger" depart="111.88" departLane="best" from="243323310#1" to="756776433#12"/>
    <trip id="veh110" type="veh_passenger" depart="112.90" departLane="best" departSpeed="max" from="756783039#0" to="972891104#3"/>
    <trip id="veh111" type="veh_passenger" depart="113.93" departLane="best" departSpeed="max" from="43363730#0" to="756776433#13"/>
    <trip id="veh112" type="veh_passenger" depart="114.95" departLane="best" from="756783039#8" to="43544023#3"/>
    <trip id="veh113" type="veh_passenger" depart="115.98" departLane="best" from="756776433#6" to="756776433#13"/>
    <trip id="veh114" type="veh_passenger" depart="117.01" departLane="best" departSpeed="max" from="243323308#0" to="756776433#7"/>
    <trip id="veh115" type="veh_passenger" depart="118.03" departLane="best" departSpeed="max" from="243323310#0" to="972891104#3"/>
    <trip id="veh116" type="veh_passenger" depart="119.06" departLane="best" departSpeed="max" from="746884499#0" to="43453112"/>
    <trip id="veh118" type="veh_passenger" depart="121.11" departLane="best" from="330617202#1" to="756783039#3"/>
    <trip id="veh119" type="veh_passenger" depart="122.14" departLane="best" from="756783039#1" to="243323310#2"/>
    <trip id="veh120" type="veh_passenger" depart="123.17" departLane="best" from="756783039#4" to="328436322"/>
    <trip id="veh121" type="veh_passenger" depart="124.19" departLane="best" from="746884497" to="756776433#12"/>
    <trip id="veh122" type="veh_passenger" depart="125.22" departLane="best" departSpeed="max" from="243323308#0" to="756776433#4"/>
    <trip id="veh123" type="veh_passenger" depart="126.24" departLane="best" departSpeed="max" from="746884499#0" to="756776433#6"/>
    <trip id="veh124" type="veh_passenger" depart="127.27" departLane="best" from="756776433#6" to="756776433#13"/>
    <trip id="veh125" type="veh_passenger" depart="128.30" departLane="best" departSpeed="max" from="746884499#0" to="756776433#9"/>
    <trip id="veh126" type="veh_passenger" depart="129.32" departLane="best" departSpeed="max" from="243323308#0" to="328436322"/>
    <trip id="veh127" type="veh_passenger" depart="130.35" departLane="best" from="756776433#10" to="-746884497"/>
    <trip id="veh128" type="veh_passenger" depart="131.38" departLane="best" departSpeed="max" from="330617202#0" to="243323310#5"/>
    <trip id="veh129" type="veh_passenger" depart="132.40" departLane="best" from="746884500#2" to="756776433#6"/>
    <trip id="veh130" type="veh_passenger" depart="133.43" departLane="best" from="243323310#3" to="328436322"/>
    <trip id="veh131" type="veh_passenger" depart="134.46" departLane="best" from="756783039#6" to="746884500#3"/>
    <trip id="veh132" type="veh_passenger" depart="135.48" departLane="best" from="756783039#8" to="328436322"/>
    <trip id="veh133" type="veh_passenger" depart="136.51" departLane="best" from="756783039#3" to="746884500#1"/>
    <trip id="veh134" type="veh_passenger" depart="137.54" departLane="best" departSpeed="max" from="756783039#0" to="43544023#3"/>
    <trip id="veh135" type="veh_passenger" depart="138.56" departLane="best" departSpeed="max" from="243323308#0" to="756776433#13"/>
    <trip id="veh136" type="veh_passenger" depart="139.59" departLane="best" departSpeed="max" from="756783039#0" to="328436322"/>
    <trip id="veh137" type="veh_passenger" depart="140.61" departLane="best" from="756776433#2" to="756776433#12"/>
    <trip id="veh138" type="veh_passenger" depart="141.64" departLane="best" from="756783039#4" to="328436322"/>
    <trip id="veh139" type="veh_passenger" depart="142.67" departLane="best" departSpeed="max" from="330617202#0" to="756776433#3"/>
    <trip id="veh140" type="veh_passenger" depart="143.69" departLane="best" departSpeed="max" from="756783039#0" to="-746884499#1"/>
    <trip id="veh141" type="veh_passenger" depart="144.72" departLane="best" from="243323310#1" to="43453111"/>
    <trip id="veh142" type="veh_passenger" depart="145.75" departLane="best" from="756783039#7" to="746884500#2"/>
    <trip id="veh143" type="veh_passenger" depart="146.77" departLane="best" departSpeed="max" from="243323308#0" to="972891104#2"/>
    <trip id="veh144" type="veh_passenger" depart="147.80" departLane="best" departSpeed="max" from="746884499#0" to="756776433#13"/>
    <trip id="veh145" type="veh_passenger" depart="148.83" departLane="best" departSpeed="max" from="756783039#0" to="756776433#0"/>
    <trip id="veh146" type="veh_passenger" depart="149.85" departLane="best" from="582380623" to="43453112"/>
    <trip id="veh147" type="veh_passenger" depart="150.88" departLane="best" from="43544025#1" to="746884500#3"/>
    <trip id="veh149" type="veh_passenger" depart="152.93" departLane="best" departSpeed="max" from="756783039#0" to="31758225#3"/>
    <trip id="veh150" type="veh_passenger" depart="153.96" departLane="best" departSpeed="max" from="243323310#0" to="972891104#3"/>
    <trip id="veh152" type="veh_passenger" depart="156.01" departLane="best" departSpeed="max" from="243323310#0" to="756776433#0"/>
    <trip id="veh153" type="veh_passenger" depart="157.04" departLane="best" from="756783039#1" to="746884500#2"/>
    <trip id="veh154" type="veh_passenger" depart="158.06" departLane="best" from="756776433#7" to="746884500#3"/>
    <trip id="veh156" type="veh_passenger" depart="160.12" departLane="best" from="756783039#6" to="328436322"/>
    <trip id="veh157" type="veh_passenger" depart="161.14" departLane="best" from="756783039#6" to="746884500#3"/>
    <trip id="veh159" type="veh_passenger" depart="163.19" departLane="best" departSpeed="max" from="746884499#0" to="756776433#9"/>
    <trip id="veh160" type="veh_passenger" depart="164.22" departLane="best" from="746884500#2" to="43453112"/>
    <trip id="veh161" type="veh_passenger" depart="165.25" departLane="best" from="582380623" to="43453112"/>
    <trip id="veh162" type="veh_passenger" depart="166.27" departLane="best" from="756776433#1" to="328436322"/>
    <trip id="veh163" type="veh_passenger" depart="167.30" departLane="best" departSpeed="max" from="756783039#0" to="-746884499#0"/>
    <trip id="veh164" type="veh_passenger" depart="168.33" departLane="best" departSpeed="max" from="756783039#0" to="43544023#3"/>
    <trip id="veh165" type="veh_passenger" depart="169.35" departLane="best" departSpeed="max" from="-43453112" to="746884500#2"/>
    <trip id="veh166" type="veh_passenger" depart="170.38" departLane="best" from="756783039#3" to="-746884499#0"/>
    <trip id="veh167" type="veh_passenger" depart="171.41" departLane="best" departSpeed="max" from="243323308#0" to="756776433#13"/>
    <trip id="veh168" type="veh_passenger" depart="172.43" departLane="best" departSpeed="max" from="243323308#0" to="756776433#13"/>
    <trip id="veh169" type="veh_passenger" depart="173.46" departLane="best" from="746884497" to="756776433#9"/>
    <trip id="veh170" type="veh_passenger" depart="174.48" departLane="best" departSpeed="max" from="243323310#0" to="746884500#3"/>
    <trip id="veh171" type="veh_passenger" depart="175.51" departLane="best" departSpeed="max" from="330617202#0" to="756783039#8"/>
    <trip id="veh172" type="veh_passenger" depart="176.54" departLane="best" departSpeed="max" from="243323310#0" to="756776433#0"/>
    <trip id="veh173" type="veh_passenger" depart="177.56" departLane="best" departSpeed="max" from="330617202#0" to="330617202#1"/>
    <trip id="veh174" type="veh_passenger" depart="178.59" departLane="best" departSpeed="max" from="243323310#0" to="43544025#5"/>
    <trip id="veh175" type="veh_passenger" depart="179.62" departLane="best" departSpeed="max" from="330617202#0" to="756783039#3"/>
    <trip id="veh176" type="veh_passenger" depart="180.64" departLane="best" from="31744605" to="43544023#3"/>
    <trip id="veh177" type="veh_passenger" depart="181.67" departLane="best" departSpeed="max" from="746884499#0" to="328436322"/>
    <trip id="veh178" type="veh_passenger" depart="182.70" departLane="best" from="972891104#0" to="756776433#13"/>
    <trip id="veh179" type="veh_passenger" depart="183.72" departLane="best" from="746884499#1" to="756776433#12"/>
    <trip id="veh181" type="veh_passenger" depart="185.77" departLane="best" from="756776433#2" to="756776433#13"/>
    <trip id="veh182" type="veh_passenger" depart="186.80" departLane="best" departSpeed="max" from="756783039#0" to="330617202#1"/>
    <trip id="veh183" type="veh_passenger" depart="187.83" departLane="best" departSpeed="max" from="756783039#0" to="746884500#0"/>
    <trip id="veh184" type="veh_passenger" depart="188.85" departLane="best" departSpeed="max" from="756783039#0" to="756776433#5"/>
    <trip id="veh185" type="veh_passenger" depart="189.88" departLane="best" departSpeed="max" from="-43453112" to="746884500#3"/>
    <trip id="veh186" type="veh_passenger" depart="190.91" departLane="best" from="582380623" to="756776433#13"/>
    <trip id="veh187" type="veh_passenger" depart="191.93" departLane="best" departSpeed="max" from="756783039#0" to="756783039#9"/>
    <trip id="veh188" type="veh_passenger" depart="192.96" departLane="best" from="243323308#1" to="328436322"/>
    <trip id="veh189" type="veh_passenger" depart="193.99" departLane="best" departSpeed="max" from="756783039#0" to="756783039#7"/>
    <trip id="veh190" type="veh_passenger" depart="195.01" departLane="best" departSpeed="max" from="243323310#0" to="756776433#6"/>
    <trip id="veh191" type="veh_passenger" depart="196.04" departLane="best" departSpeed="max" from="243323308#0" to="756783039#6"/>
    <trip id="veh192" type="veh_passenger" depart="197.07" departLane="best" departSpeed="max" from="243323310#0" to="756776433#0"/>
    <trip id="veh193" type="veh_passenger" depart="198.09" departLane="best" departSpeed="max" from="243323308#0" to="756776433#13"/>
    <trip id="veh194" type="veh_passenger" depart="199.12" departLane="best" from="43363730#3" to="43544023#3"/>
    <trip id="veh195" type="veh_passenger" depart="200.14" departLane="best" from="756783039#2" to="582380623"/>
    <trip id="veh196" type="veh_passenger" depart="201.17" departLane="best" from="756776433#4" to="756776433#13"/>
    <trip id="veh198" type="veh_passenger" depart="203.22" departLane="best" departSpeed="max" from="756783039#0" to="328436322"/>
    <trip id="veh199" type="veh_passenger" depart="204.25" departLane="best" departSpeed="max" from="243323310#0" to="756776433#1"/>
    <trip id="veh200" type="veh_passenger" depart="205.28" departLane="best" departSpeed="max" from="243323308#0" to="756776433#7"/>
    <trip id="veh201" type="veh_passenger" depart="206.30" departLane="best" from="756783039#4" to="328436322"/>
    <trip id="veh202" type="veh_passenger" depart="207.33" departLane="best" departSpeed="max" from="243323310#0" to="756783039#7"/>
    <trip id="veh203" type="veh_passenger" depart="208.36" departLane="best" departSpeed="max" from="243323310#0" to="243323310#5"/>
    <trip id="veh204" type="veh_passenger" depart="209.38" departLane="best" departSpeed="max" from="330617202#0" to="31758225#3"/>
    <trip id="veh205" type="veh_passenger" depart="210.41" departLane="best" departSpeed="max" from="330617202#0" to="43453112"/>
    <trip id="veh206" type="veh_passenger" depart="211.43" departLane="best" from="756776433#9" to="746884500#3"/>
    <trip id="veh207" type="veh_passenger" depart="212.46" departLane="best" departSpeed="max" from="756783039#0" to="746884500#3"/>
    <trip id="veh208" type="veh_passenger" depart="213.49" departLane="best" from="243323308#1" to="746884500#3"/>
    <trip id="veh209" type="veh_passenger" depart="214.51" departLane="best" from="756783039#5" to="-746884499#1"/>
    <trip id="veh210" type="veh_passenger" depart="215.54" departLane="best" departSpeed="max" from="243323308#0" to="756776433#12"/>
    <trip id="veh211" type="veh_passenger" depart="216.57" departLane="best" departSpeed="max" from="243323308#0" to="330617202#4"/>
    <trip id="veh212" type="veh_passenger" depart="217.59" departLane="best" from="756776433#8" to="328436322"/>
    <trip id="veh213" type="veh_passenger" depart="218.62" departLane="best" from="582380623" to="328436322"/>
    <trip id="veh215" type="veh_passenger" depart="220.67" departLane="best" from="756783039#1" to="243323310#3"/>
    <trip id="veh216" type="veh_passenger" depart="221.70" departLane="best" departSpeed="max" from="243323308#0" to="756776433#5"/>
    <trip id="veh217" type="veh_passenger" depart="222.72" departLane="best" departSpeed="max" from="756783039#0" to="756776433#1"/>
    <trip id="veh218" type="veh_passenger" depart="223.75" departLane="best" from="43363730#2" to="756776433#13"/>
    <trip id="veh219" type="veh_passenger" depart="224.78" departLane="best" from="756776433#10" to="328436322"/>
    <trip id="veh220" type="veh_passenger" depart="225.80" departLane="best" from="756776433#4" to="328436322"/>
    <trip id="veh221" type="veh_passenger" depart="226.83" departLane="best" from="243323308#1" to="756783039#3"/>
    <trip id="veh222" type="veh_passenger" depart="227.86" departLane="best" from="756783039#1" to="972891104#3"/>
    <trip id="veh223" type="veh_passenger" depart="228.88" departLane="best" from="756776433#9" to="328436322"/>
    <trip id="veh224" type="veh_passenger" depart="229.91" departLane="best" departSpeed="max" from="756783039#0" to="756776433#1"/>
    <trip id="veh225" type="veh_passenger" depart="230.94" departLane="best" departSpeed="max" from="243323308#0" to="1139540285"/>
    <trip id="veh226" type="veh_passenger" depart="231.96" departLane="best" departSpeed="max" from="243323310#0" to="756776433#13"/>
    <trip id="veh227" type="veh_passenger" depart="232.99" departLane="best" departSpeed="max" from="756783039#0" to="243323310#5"/>
    <trip id="veh228" type="veh_passenger" depart="234.01" departLane="best" from="43544025#0" to="756776433#11"/>
    <trip id="veh229" type="veh_passenger" depart="235.04" departLane="best" departSpeed="max" from="330617202#0" to="43453112"/>
    <trip id="veh230" type="veh_passenger" depart="236.07" departLane="best" from="756776433#7" to="746884500#2"/>
    <trip id="veh231" type="veh_passenger" depart="237.09" departLane="best" departSpeed="max" from="243323308#0" to="756783039#4"/>
    <trip id="veh232" type="veh_passenger" depart="238.12" departLane="best" from="756783039#1" to="328436322"/>
    <trip id="veh234" type="veh_passenger" depart="240.17" departLane="best" from="43544025#0" to="43453111"/>
    <trip id="veh235" type="veh_passenger" depart="241.20" departLane="best" from="746884500#2" to="746884500#3"/>
    <trip id="veh236" type="veh_passenger" depart="242.23" departLane="best" from="243323308#2" to="746884500#3"/>
    <trip id="veh237" type="veh_passenger" depart="243.25" departLane="best" departSpeed="max" from="756783039#0" to="328436322"/>
    <trip id="veh238" type="veh_passenger" depart="244.28" departLane="best" departSpeed="max" from="243323310#0" to="31758225#3"/>
    <trip id="veh239" type="veh_passenger" depart="245.31" departLane="best" departSpeed="max" from="756783039#0" to="746884500#1"/>
    <trip id="veh240" type="veh_passenger" depart="246.33" departLane="best" departSpeed="max" from="756783039#0" to="756776433#6"/>
    <trip id="veh241" type="veh_passenger" depart="247.36" departLane="best" from="756776433#1" to="756776433#13"/>
    <trip id="veh242" type="veh_passenger" depart="248.38" departLane="best" departSpeed="max" from="243323308#0" to="43544025#5"/>
    <trip id="veh243" type="veh_passenger" depart="249.41" departLane="best" from="-746884499#1" to="746884500#3"/>
    <trip id="veh245" type="veh_passenger" depart="251.46" departLane="best" departSpeed="max" from="243323308#0" to="756783039#4"/>