<?xml version="1.0" encoding="UTF-8"?>

<!-- generated on 2025-03-10 12:59:56.169539 by osmWebWizard.py v1_21_0+0000-d7b3b481c43
<configuration>
    <net-file value="C:\Users\dionisis\Sumo\2025-03-10-12-59-11\osm.net.xml.gz"/>
    <output-trip-file value="C:\Users\dionisis\Sumo\2025-03-10-12-59-11\osm.passenger.trips.xml"/>
    <route-file value="C:\Users\dionisis\Sumo\2025-03-10-12-59-11\osm.passenger.rou.xml"/>
    <prefix value="veh"/>
    <trip-attributes value="departLane=&quot;best&quot;"/>
    <fringe-start-attributes value="departSpeed=&quot;max&quot;"/>
    <vehicle-class value="passenger"/>
    <lanes value="True"/>
    <fringe-factor value="5"/>
    <allow-fringe.min-length value="1000.0"/>
    <via-edge-types value="highway.motorway,highway.motorway_link,highway.trunk_link,highway.primary_link,highway.secondary_link,highway.tertiary_link"/>
    <min-distance value="300.0"/>
    <min-distance.fringe value="10.0"/>
    <remove-loops value="True"/>
    <validate value="True"/>
    <insertion-density value="1000.0"/>
</configuration>
-->

<!-- generated on 2025-03-10 12:59:55 by Eclipse SUMO duarouter Version 1.21.0
<duarouterConfiguration xmlns:xsi="http://www.w3.org/2001/XMLSchema-instance" xsi:noNamespaceSchemaLocation="http://sumo.dlr.de/xsd/duarouterConfiguration.xsd">

    <input>
        <net-file value="C:\Users\dionisis\Sumo\2025-03-10-12-59-11\osm.net.xml.gz"/>
        <route-files value="C:\Users\dionisis\Sumo\2025-03-10-12-59-11\osm.passenger.trips.xml"/>
    </input>

    <output>
        <output-file value="C:\Users\dionisis\Sumo\2025-03-10-12-59-11\osm.passenger.trips.xml.tmp"/>
        <alternatives-output value="NUL"/>
        <write-trips value="true"/>
    </output>

    <processing>
        <remove-loops value="true"/>
    </processing>

    <time>
        <begin value="0.0"/>
        <end value="3600.0"/>
    </time>

    <report>
        <no-warnings value="true"/>
        <ignore-errors value="true"/>
        <no-step-log value="true"/>
    </report>

</duarouterConfiguration>
-->

<routes xmlns:xsi="http://www.w3.org/2001/XMLSchema-instance" xsi:noNamespaceSchemaLocation="http://sumo.dlr.de/xsd/routes_file.xsd">
    <vType id="veh_passenger" vClass="passenger"/>
    <trip id="veh0" type="veh_passenger" depart="0.00" departLane="best" from="31758350#0" to="330617202#2"/>
    <trip id="veh1" type="veh_passenger" depart="0.52" departLane="best" from="43164921#0" to="36836077#2"/>
    <trip id="veh2" type="veh_passenger" depart="1.04" departLane="best" from="756776433#0" to="693003007#5"/>
    <trip id="veh3" type="veh_passenger" depart="1.57" departLane="best" from="693003007#8" to="756776433#0"/>
    <trip id="veh4" type="veh_passenger" depart="2.09" departLane="best" from="756783039#11" to="-31712409"/>
    <trip id="veh5" type="veh_passenger" depart="2.61" departLane="best" from="36836077#0" to="31744611#1"/>
    <trip id="veh6" type="veh_passenger" depart="3.13" departLane="best" from="958294136#2" to="40786463#3"/>
    <trip id="veh7" type="veh_passenger" depart="3.66" departLane="best" departSpeed="max" from="243323310" to="26249231#1"/>
    <trip id="veh8" type="veh_passenger" depart="4.18" departLane="best" departSpeed="max" from="31712409" to="36836077#3"/>
    <trip id="veh9" type="veh_passenger" depart="4.70" departLane="best" departSpeed="max" from="243323310" to="36836077#3"/>
    <trip id="veh10" type="veh_passenger" depart="5.22" departLane="best" from="693003007#8" to="43180541#0"/>
    <trip id="veh11" type="veh_passenger" depart="5.75" departLane="best" departSpeed="max" from="36866928" to="31758350#3"/>
    <trip id="veh12" type="veh_passenger" depart="6.27" departLane="best" from="756776433#0" to="756776433#11"/>
    <trip id="veh13" type="veh_passenger" depart="6.79" departLane="best" departSpeed="max" from="31712383" to="756776433#8"/>
    <trip id="veh14" type="veh_passenger" depart="7.31" departLane="best" departSpeed="max" from="31712383" to="43363730#1"/>
    <trip id="veh15" type="veh_passenger" depart="7.84" departLane="best" from="643432387#2" to="756776433#3"/>
    <trip id="veh16" type="veh_passenger" depart="8.36" departLane="best" from="756783039#3" to="756783039#12"/>
    <trip id="veh17" type="veh_passenger" depart="8.88" departLane="best" from="36803061" to="36836077#2"/>
    <trip id="veh18" type="veh_passenger" depart="9.40" departLane="best" departSpeed="max" from="31712394#0" to="958294762#1"/>
    <trip id="veh19" type="veh_passenger" depart="9.93" departLane="best" from="31758225#1" to="36836074#1"/>
    <trip id="veh20" type="veh_passenger" depart="10.45" departLane="best" departSpeed="max" from="692842852" to="914849298#1"/>
    <trip id="veh22" type="veh_passenger" depart="11.49" departLane="best" from="972891104#3" to="643432387#4"/>
    <trip id="veh23" type="veh_passenger" depart="12.02" departLane="best" departSpeed="max" from="243323310" to="-892643217#3"/>
    <trip id="veh25" type="veh_passenger" depart="13.06" departLane="best" from="756783039#0" to="43544025#1"/>
    <trip id="veh26" type="veh_passenger" depart="13.58" departLane="best" from="1139540286#0" to="43363730#2"/>
    <trip id="veh27" type="veh_passenger" depart="14.11" departLane="best" from="972891104#2" to="693003007#10"/>
    <trip id="veh28" type="veh_passenger" depart="14.63" departLane="best" from="958294762#2" to="43634417#2"/>
    <trip id="veh29" type="veh_passenger" depart="15.15" departLane="best" departSpeed="max" from="-36836077#3" to="756776433#7"/>
    <trip id="veh32" type="veh_passenger" depart="16.72" departLane="best" from="756783039#8" to="36836077#1"/>
    <trip id="veh33" type="veh_passenger" depart="17.24" departLane="best" departSpeed="max" from="330617202#0" to="756776433#14"/>
    <trip id="veh34" type="veh_passenger" depart="17.76" departLane="best" from="693003007#2" to="31744611#1"/>
    <trip id="veh36" type="veh_passenger" depart="18.81" departLane="best" from="756776433#9" to="693003007#10"/>
    <trip id="veh37" type="veh_passenger" depart="19.33" departLane="best" departSpeed="max" from="-36836077#3" to="958294136#4"/>
    <trip id="veh38" type="veh_passenger" depart="19.85" departLane="best" from="330617202#2" to="1139540286#1"/>
    <trip id="veh39" type="veh_passenger" depart="20.38" departLane="best" departSpeed="max" from="243323310" to="643432387#1"/>
    <trip id="veh40" type="veh_passenger" depart="20.90" departLane="best" from="1139540286#1" to="756783039#10"/>
    <trip id="veh41" type="veh_passenger" depart="21.42" departLane="best" from="43544025#4" to="693003007#5"/>
    <trip id="veh42" type="veh_passenger" depart="21.94" departLane="best" from="31758225#1" to="892643217#3"/>
    <trip id="veh43" type="veh_passenger" depart="22.47" departLane="best" from="643432387#1" to="756776433#8"/>
    <trip id="veh44" type="veh_passenger" depart="22.99" departLane="best" departSpeed="max" from="31712394#0" to="37053846#2"/>
    <trip id="veh45" type="veh_passenger" depart="23.51" departLane="best" from="972891104#2" to="756776433#16"/>
    <trip id="veh46" type="veh_passenger" depart="24.03" departLane="best" from="43180541#1" to="643432387#4"/>
    <trip id="veh48" type="veh_passenger" depart="25.08" departLane="best" from="36836074#3" to="756776433#0"/>
    <trip id="veh50" type="veh_passenger" depart="26.12" departLane="best" departSpeed="max" from="31712394#0" to="31744508#1"/>
    <trip id="veh51" type="veh_passenger" depart="26.65" departLane="best" from="756783039#11" to="31758350#1"/>
    <trip id="veh52" type="veh_passenger" depart="27.17" departLane="best" from="756776433#2" to="756776433#18"/>
    <trip id="veh53" type="veh_passenger" depart="27.69" departLane="best" from="972891103#1" to="26249231#1"/>
    <trip id="veh54" type="veh_passenger" depart="28.21" departLane="best" from="43164921#0" to="36836077#3"/>
    <trip id="veh55" type="veh_passenger" depart="28.74" departLane="best" from="43363730#0" to="892643217#2"/>
    <trip id="veh56" type="veh_passenger" depart="29.26" departLane="best" from="756783039#4" to="31744611#1"/>
    <trip id="veh57" type="veh_passenger" depart="29.78" departLane="best" from="37053846#0" to="972891104#0"/>
    <trip id="veh58" type="veh_passenger" depart="30.30" departLane="best" from="643432387#2" to="756776433#7"/>
    <trip id="veh59" type="veh_passenger" depart="30.82" departLane="best" from="31712369" to="36861408"/>
    <trip id="veh60" type="veh_passenger" depart="31.35" departLane="best" from="958294762#1" to="693003007#9"/>
    <trip id="veh61" type="veh_passenger" depart="31.87" departLane="best" from="-892643217#2" to="756776433#0"/>
    <trip id="veh62" type="veh_passenger" depart="32.39" departLane="best" departSpeed="max" from="542470930" to="756783039#9"/>
    <trip id="veh63" type="veh_passenger" depart="32.91" departLane="best" departSpeed="max" from="31712383" to="958295312#1"/>
    <trip id="veh64" type="veh_passenger" depart="33.44" departLane="best" from="693003007#0" to="756776433#2"/>
    <trip id="veh66" type="veh_passenger" depart="34.48" departLane="best" from="693003007#0" to="756776433#12"/>
    <trip id="veh67" type="veh_passenger" depart="35.00" departLane="best" from="43164870#1" to="693003007#9"/>
    <trip id="veh68" type="veh_passenger" depart="35.53" departLane="best" departSpeed="max" from="31712394#0" to="756776433#7"/>
    <trip id="veh69" type="veh_passenger" depart="36.05" departLane="best" departSpeed="max" from="31712409" to="43453112"/>
    <trip id="veh70" type="veh_passenger" depart="36.57" departLane="best" from="756783039#9" to="892643217#3"/>
    <trip id="veh71" type="veh_passenger" depart="37.09" departLane="best" from="693003007#5" to="972891104#0"/>
    <trip id="veh72" type="veh_passenger" depart="37.62" departLane="best" from="756776433#0" to="-31712409"/>
    <trip id="veh73" type="veh_passenger" depart="38.14" departLane="best" from="756783039#12" to="1139540286#0"/>
    <trip id="veh74" type="veh_passenger" depart="38.66" departLane="best" from="756783039#4" to="26249231#1"/>
    <trip id="veh75" type="veh_passenger" depart="39.18" departLane="best" from="43164921#0" to="36836077#3"/>
    <trip id="veh76" type="veh_passenger" depart="39.71" departLane="best" from="-36836077#0" to="756783039#11"/>
    <trip id="veh77" type="veh_passenger" depart="40.23" departLane="best" from="756776433#3" to="43634417#1"/>
    <trip id="veh79" type="veh_passenger" depart="41.27" departLane="best" from="330617202#2" to="36836074#0"/>
    <trip id="veh80" type="veh_passenger" depart="41.80" departLane="best" from="31744508#2" to="26249231#1"/>
    <trip id="veh81" type="veh_passenger" depart="42.32" departLane="best" from="756776433#9" to="892643217#3"/>
    <trip id="veh82" type="veh_passenger" depart="42.84" departLane="best" from="31712369" to="958294136#4"/>
    <trip id="veh83" type="veh_passenger" depart="43.36" departLane="best" from="756783039#11" to="892643217#3"/>
    <trip id="veh84" type="veh_passenger" depart="43.89" departLane="best" departSpeed="max" from="-36836077#3" to="756776433#9"/>
    <trip id="veh85" type="veh_passenger" depart="44.41" departLane="best" from="36836074#2" to="958294136#4"/>
    <trip id="veh86" type="veh_passenger" depart="44.93" departLane="best" from="756783039#10" to="892643217#2"/>
    <trip id="veh87" type="veh_passenger" depart="45.45" departLane="best" from="756783039#11" to="36836077#2"/>
    <trip id="veh88" type="veh_passenger" depart="45.98" departLane="best" from="756783039#0" to="290903432"/>
    <trip id="veh89" type="veh_passenger" depart="46.50" departLane="best" from="756783039#7" to="43634417#2"/>
    <trip id="veh90" type="veh_passenger" depart="47.02" departLane="best" from="43544023" to="37053846#0"/>
    <trip id="veh91" type="veh_passenger" depart="47.54" departLane="best" from="756783039#1" to="756783039#12"/>
    <trip id="veh92" type="veh_passenger" depart="48.07" departLane="best" from="958294762#0" to="36836077#3"/>
    <trip id="veh93" type="veh_passenger" depart="48.59" departLane="best" from="693003007#9" to="43453112"/>
    <trip id="veh96" type="veh_passenger" depart="50.16" departLane="best" from="958294136#3" to="36836077#2"/>
    <trip id="veh98" type="veh_passenger" depart="51.20" departLane="best" from="756776433#2" to="756776433#16"/>
    <trip id="veh99" type="veh_passenger" depart="51.72" departLane="best" from="-36836077#0" to="958294136#4"/>
    <trip id="veh100" type="veh_passenger" depart="52.25" departLane="best" from="643432387#1" to="756776433#7"/>
    <trip id="veh101" type="veh_passenger" depart="52.77" departLane="best" from="756776433#4" to="756776433#18"/>
    <trip id="veh102" type="veh_passenger" depart="53.29" departLane="best" departSpeed="max" from="36866928" to="223719451#1"/>
    <trip id="veh104" type="veh_passenger" depart="54.34" departLane="best" departSpeed="max" from="958294136#0" to="756776433#2"/>
    <trip id="veh105" type="veh_passenger" depart="54.86" departLane="best" departSpeed="max" from="330617202#0" to="693003007#5"/>
    <trip id="veh106" type="veh_passenger" depart="55.38" departLane="best" from="756776433#1" to="756776433#14"/>
    <trip id="veh107" type="veh_passenger" depart="55.90" departLane="best" from="43363730#0" to="31758350#3"/>
    <trip id="veh108" type="veh_passenger" depart="56.43" departLane="best" from="43544025#4" to="36836074#0"/>
    <trip id="veh109" type="veh_passenger" depart="56.95" departLane="best" departSpeed="max" from="243323310" to="643432387#4"/>
    <trip id="veh110" type="veh_passenger" depart="57.47" departLane="best" from="756783039#12" to="756783039#1"/>
    <trip id="veh111" type="veh_passenger" depart="57.99" departLane="best" from="31744508#1" to="643432387#0"/>
    <trip id="veh112" type="veh_passenger" depart="58.52" departLane="best" from="31712393" to="756776433#4"/>
    <trip id="veh113" type="veh_passenger" depart="59.04" departLane="best" departSpeed="max" from="542470930" to="36836074#0"/>
    <trip id="veh114" type="veh_passenger" depart="59.56" departLane="best" from="756776433#1" to="-31712409"/>
    <trip id="veh116" type="veh_passenger" depart="60.60" departLane="best" departSpeed="max" from="31712383" to="958295312#1"/>
    <trip id="veh117" type="veh_passenger" depart="61.13" departLane="best" from="693003007#0" to="958294762#2"/>
    <trip id="veh118" type="veh_passenger" depart="61.65" departLane="best" from="892643217#1" to="756776433#11"/>
    <trip id="veh119" type="veh_passenger" depart="62.17" departLane="best" from="43544025#4" to="36836077#0"/>
    <trip id="veh120" type="veh_passenger" depart="62.69" departLane="best" from="31744508#1" to="756776433#14"/>
    <trip id="veh122" type="veh_passenger" depart="63.74" departLane="best" from="223719451#0" to="36836077#3"/>
    <trip id="veh123" type="veh_passenger" depart="64.26" departLane="best" from="31758225#3" to="40786463#1"/>
    <trip id="veh124" type="veh_passenger" depart="64.78" departLane="best" from="643432387#1" to="31744508#2"/>
    <trip id="veh125" type="veh_passenger" depart="65.31" departLane="best" departSpeed="max" from="31712409" to="756776433#4"/>
    <trip id="veh126" type="veh_passenger" depart="65.83" departLane="best" from="43164870#0" to="31758350#3"/>
    <trip id="veh127" type="veh_passenger" depart="66.35" departLane="best" from="43164870#1" to="916066724#0"/>
    <trip id="veh128" type="veh_passenger" depart="66.87" departLane="best" departSpeed="max" from="692842852" to="756776433#4"/>
    <trip id="veh129" type="veh_passenger" depart="67.40" departLane="best" from="643432387#1" to="756776433#10"/>
    <trip id="veh131" type="veh_passenger" depart="68.44" departLane="best" from="43180541#0" to="36836077#2"/>
    <trip id="veh132" type="veh_passenger" depart="68.96" departLane="best" from="36836074#3" to="756776433#2"/>
    <trip id="veh133" type="veh_passenger" depart="69.49" departLane="best" from="40786463#3" to="31744611#1"/>
    <trip id="veh134" type="veh_passenger" depart="70.01" departLane="best" departSpeed="max" from="-36836077#3" to="756776433#15"/>
    <trip id="veh135" type="veh_passenger" depart="70.53" departLane="best" from="-892643217#0" to="43363730#1"/>
    <trip id="veh136" type="veh_passenger" depart="71.05" departLane="best" departSpeed="max" from="31712394#0" to="40786463#2"/>
    <trip id="veh137" type="veh_passenger" depart="71.58" departLane="best" from="31744605" to="26249231#0"/>
    <trip id="veh138" type="veh_passenger" depart="72.10" departLane="best" from="756776433#0" to="756783039#1"/>
    <trip id="veh139" type="veh_passenger" depart="72.62" departLane="best" departSpeed="max" from="958294136#0" to="31758350#3"/>
    <trip id="veh140" type="veh_passenger" depart="73.14" departLane="best" departSpeed="max" from="-36836077#3" to="31744611#1"/>
    <trip id="veh142" type="veh_passenger" depart="74.19" departLane="best" from="756776433#15" to="756783039#11"/>
    <trip id="veh143" type="veh_passenger" depart="74.71" departLane="best" departSpeed="max" from="31712383" to="756776433#10"/>
    <trip id="veh145" type="veh_passenger" depart="75.76" departLane="best" from="756783039#12" to="958295312#1"/>
    <trip id="veh149" type="veh_passenger" depart="77.85" departLane="best" from="693003007#8" to="756783039#7"/>
    <trip id="veh150" type="veh_passenger" depart="78.37" departLane="best" from="756776433#2" to="958295312#1"/>
    <trip id="veh151" type="veh_passenger" depart="78.89" departLane="best" from="756783039#9" to="36836074#0"/>
    <trip id="veh152" type="veh_passenger" depart="79.41" departLane="best" from="43544025#0" to="756776433#11"/>
    <trip id="veh153" type="veh_passenger" depart="79.94" departLane="best" from="37053846#0" to="36836077#2"/>
    <trip id="veh154" type="veh_passenger" depart="80.46" departLane="best" departSpeed="max" from="31712394#0" to="756783039#3"/>
    <trip id="veh155" type="veh_passenger" depart="80.98" departLane="best" from="756776433#15" to="36836077#3"/>
    <trip id="veh156" type="veh_passenger" depart="81.50" departLane="best" from="-36836077#2" to="958294762#2"/>
    <trip id="veh157" type="veh_passenger" depart="82.03" departLane="best" from="43634417#2" to="756783039#10"/>
    <trip id="veh158" type="veh_passenger" depart="82.55" departLane="best" from="643432387#0" to="43544025#3"/>
    <trip id="veh159" type="veh_passenger" depart="83.07" departLane="best" from="756776433#4" to="40786463#3"/>
    <trip id="veh160" type="veh_passenger" depart="83.59" departLane="best" from="756776433#15" to="36836077#3"/>
    <trip id="veh162" type="veh_passenger" depart="84.64" departLane="best" from="643432387#0" to="756783039#10"/>
    <trip id="veh164" type="veh_passenger" depart="85.68" departLane="best" from="43634417#1" to="756776433#8"/>
    <trip id="veh166" type="veh_passenger" depart="86.73" departLane="best" from="31712393" to="756783039#12"/>
    <trip id="veh167" type="veh_passenger" depart="87.25" departLane="best" departSpeed="max" from="31712383" to="-31712409"/>
    <trip id="veh168" type="veh_passenger" depart="87.77" departLane="best" from="643432387#0" to="36836077#3"/>
    <trip id="veh169" type="veh_passenger" depart="88.29" departLane="best" from="958294762#2" to="43634417#1"/>
    <trip id="veh170" type="veh_passenger" depart="88.82" departLane="best" from="756783039#7" to="643432387#1"/>
    <trip id="veh171" type="veh_passenger" depart="89.34" departLane="best" from="756783039#7" to="693003007#8"/>
    <trip id="veh172" type="veh_passenger" depart="89.86" departLane="best" from="43544025#3" to="43634417#0"/>
    <trip id="veh173" type="veh_passenger" depart="90.38" departLane="best" departSpeed="max" from="31712383" to="1139540286#0"/>
    <trip id="veh174" type="veh_passenger" depart="90.91" departLane="best" departSpeed="max" from="958294136#0" to="643432387#0"/>
    <trip id="veh175" type="veh_passenger" depart="91.43" departLane="best" from="-892643217#1" to="31744611#1"/>
    <trip id="veh177" type="veh_passenger" depart="92.47" departLane="best" from="756783039#0" to="756783039#12"/>
    <trip id="veh178" type="veh_passenger" depart="93.00" departLane="best" from="629463005#0" to="582380623"/>
    <trip id="veh179" type="veh_passenger" depart="93.52" departLane="best" from="43363730#0" to="43634417#2"/>
    <trip id="veh180" type="veh_passenger" depart="94.04" departLane="best" from="972891104#1" to="37053846#0"/>
    <trip id="veh181" type="veh_passenger" depart="94.56" departLane="best" from="693003007#6" to="756776433#11"/>
    <trip id="veh182" type="veh_passenger" depart="95.09" departLane="best" from="756776433#3" to="958294762#2"/>
    <trip id="veh183" type="veh_passenger" depart="95.61" departLane="best" from="-36836077#0" to="582380623"/>
    <trip id="veh184" type="veh_passenger" depart="96.13" departLane="best" from="693003007#0" to="36861408"/>
    <trip id="veh185" type="veh_passenger" depart="96.65" departLane="best" departSpeed="max" from="31712409" to="756776433#6"/>
    <trip id="veh186" type="veh_passenger" depart="97.18" departLane="best" from="756776433#15" to="582380623"/>
    <trip id="veh187" type="veh_passenger" depart="97.70" departLane="best" from="756776433#13" to="958294136#4"/>
    <trip id="veh188" type="veh_passenger" depart="98.22" departLane="best" from="43164921#0" to="693003007#5"/>
    <trip id="veh189" type="veh_passenger" depart="98.74" departLane="best" from="756776433#0" to="916066724#1"/>
    <trip id="veh190" type="veh_passenger" depart="99.27" departLane="best" from="756783039#13" to="223719451#1"/>
    <trip id="veh191" type="veh_passenger" depart="99.79" departLane="best" departSpeed="max" from="31712383" to="37053846#1"/>
    <trip id="veh192" type="veh_passenger" depart="100.31" departLane="best" from="756776433#4" to="693003007#8"/>
    <trip id="veh193" type="veh_passenger" depart="100.83" departLane="best" departSpeed="max" from="330617202#0" to="31712395"/>
    <trip id="veh194" type="veh_passenger" depart="101.36" departLane="best" departSpeed="max" from="958294136#0" to="643432387#2"/>
    <trip id="veh195" type="veh_passenger" depart="101.88" departLane="best" departSpeed="max" from="243323310" to="958295312#1"/>
    <trip id="veh196" type="veh_passenger" depart="102.40" departLane="best" from="756776433#11" to="36836077#3"/>
    <trip id="veh197" type="veh_passenger" depart="102.92" departLane="best" from="43544025#3" to="756776433#16"/>
    <trip id="veh198" type="veh_passenger" depart="103.45" departLane="best" departSpeed="max" from="914828652#0" to="31758225#3"/>
    <trip id="veh199" type="veh_passenger" depart="103.97" departLane="best" departSpeed="max" from="692842852" to="756776433#14"/>
    <trip id="veh200" type="veh_passenger" depart="104.49" departLane="best" from="-36836077#2" to="40786463#3"/>
    <trip id="veh201" type="veh_passenger" depart="105.01" departLane="best" from="756776433#11" to="43634417#2"/>
    <trip id="veh202" type="veh_passenger" depart="105.54" departLane="best" from="36836074#1" to="756776433#4"/>
    <trip id="veh203" type="veh_passenger" depart="106.06" departLane="best" from="756783039#11" to="693003007#5"/>
    <trip id="veh204" type="veh_passenger" depart="106.58" departLane="best" from="36835974" to="958295312#1"/>
    <trip id="veh205" type="veh_passenger" depart="107.10" departLane="best" from="972891104#0" to="756776433#17"/>
    <trip id="veh206" type="veh_passenger" depart="107.63" departLane="best" from="643432387#1" to="43544023"/>
    <trip id="veh207" type="veh_passenger" depart="108.15" departLane="best" departSpeed="max" from="31712383" to="43164921#2"/>
    <trip id="veh208" type="veh_passenger" depart="108.67" departLane="best" from="756776433#6" to="31758350#3"/>
    <trip id="veh209" type="veh_passenger" depart="109.19" departLane="best" from="643432387#2" to="958294136#4"/>
    <trip id="veh211" type="veh_passenger" depart="110.24" departLane="best" from="693003007#2" to="36835974"/>
    <trip id="veh213" type="veh_passenger" depart="111.28" departLane="best" from="31758350#0" to="756783039#7"/>
    <trip id="veh214" type="veh_passenger" depart="111.81" departLane="best" from="972891103#0" to="36836074#0"/>
    <trip id="veh215" type="veh_passenger" depart="112.33" departLane="best" from="643432387#2" to="43363730#2"/>
    <trip id="veh216" type="veh_passenger" depart="112.85" departLane="best" from="756783039#8" to="892643217#2"/>
    <trip id="veh217" type="veh_passenger" depart="113.37" departLane="best" from="31758350#0" to="756783039#2"/>
    <trip id="veh218" type="veh_passenger" depart="113.90" departLane="best" departSpeed="max" from="692842852" to="972891104#3"/>
    <trip id="veh219" type="veh_passenger" depart="114.42" departLane="best" from="43634417#2" to="31744611#1"/>
    <trip id="veh220" type="veh_passenger" depart="114.94" departLane="best" departSpeed="max" from="31712383" to="756776433#4"/>
    <trip id="veh221" type="veh_passenger" depart="115.46" departLane="best" departSpeed="max" from="692842852" to="36803061"/>
    <trip id="veh222" type="veh_passenger" depart="115.99" departLane="best" from="756776433#8" to="-892643217#2"/>
    <trip id="veh223" type="veh_passenger" depart="116.51" departLane="best" from="972891103#0" to="643432387#2"/>
    <trip id="veh224" type="veh_passenger" depart="117.03" departLane="best" departSpeed="max" from="-43453112" to="643432387#2"/>
    <trip id="veh225" type="veh_passenger" depart="117.55" departLane="best" from="756783039#8" to="43634417#0"/>
    <trip id="veh226" type="veh_passenger" depart="118.07" departLane="best" from="629463005#1" to="582380623"/>
    <trip id="veh227" type="veh_passenger" depart="118.60" departLane="best" from="43544025#3" to="958295312#1"/>
    <trip id="veh228" type="veh_passenger" depart="119.12" departLane="best" from="36836077#0" to="756776433#4"/>
    <trip id="veh229" type="veh_passenger" depart="119.64" departLane="best" from="756783039#5" to="43634417#2"/>
    <trip id="veh230" type="veh_passenger" depart="120.16" departLane="best" from="756776433#17" to="756783039#10"/>
    <trip id="veh231" type="veh_passenger" depart="120.69" departLane="best" from="756783039#7" to="-892643217#0"/>
    <trip id="veh232" type="veh_passenger" depart="121.21" departLane="best" from="914849298#0" to="972891104#3"/>
    <trip id="veh233" type="veh_passenger" depart="121.73" departLane="best" departSpeed="max" from="243323310" to="756776433#14"/>
    <trip id="veh234" type="veh_passenger" depart="122.25" departLane="best" from="756783039#7" to="43634417#1"/>
    <trip id="veh235" type="veh_passenger" depart="122.78" departLane="best" from="756776433#14" to="916066724#0"/>
    <trip id="veh236" type="veh_passenger" depart="123.30" departLane="best" from="31744605" to="36836074#3"/>
    <trip id="veh237" type="veh_passenger" depart="123.82" departLane="best" from="-36836077#2" to="756783039#4"/>
    <trip id="veh238" type="veh_passenger" depart="124.34" departLane="best" departSpeed="max" from="914828652#0" to="756776433#2"/>
    <trip id="veh239" type="veh_passenger" depart="124.87" departLane="best" from="-36836077#2" to="756776433#0"/>
    <trip id="veh240" type="veh_passenger" depart="125.39" departLane="best" from="693003007#8" to="43544025#1"/>
    <trip id="veh241" type="veh_passenger" depart="125.91" departLane="best" departSpeed="max" from="31712394#0" to="756783039#10"/>
    <trip id="veh242" type="veh_passenger" depart="126.43" departLane="best" from="972891104#1" to="36861408"/>
    <trip id="veh243" type="veh_passenger" depart="126.96" departLane="best" from="-892643217#0" to="756776433#10"/>
    <trip id="veh244" type="veh_passenger" depart="127.48" departLane="best" departSpeed="max" from="542470930" to="916066724#0"/>
    <trip id="veh245" type="veh_passenger" depart="128.00" departLane="best" departSpeed="max" from="330617202#0" to="756783039#3"/>
    <trip id="veh246" type="veh_passenger" depart="128.52" departLane="best" from="693003007#2" to="43164921#0"/>
    <trip id="veh247" type="veh_passenger" depart="129.05" departLane="best" from="693003007#8" to="756776433#12"/>
    <trip id="veh248" type="veh_passenger" depart="129.57" departLane="best" from="43363730#0" to="693003007#9"/>
    <trip id="veh249" type="veh_passenger" depart="130.09" departLane="best" from="756776433#2" to="26249231#1"/>
    <trip id="veh250" type="veh_passenger" depart="130.61" departLane="best" departSpeed="max" from="330617202#0" to="756783039#1"/>
    <trip id="veh251" type="veh_passenger" depart="131.14" departLane="best" departSpeed="max" from="31712383" to="31744508#1"/>
    <trip id="veh253" type="veh_passenger" depart="132.18" departLane="best" from="756783039#13" to="643432387#1"/>
    <trip id="veh254" type="veh_passenger" depart="132.70" departLane="best" from="958294136#3" to="31744605"/>
    <trip id="veh255" type="veh_passenger" depart="133.23" departLane="best" from="958294762#0" to="43634417#2"/>
    <trip id="veh256" type="veh_passenger" depart="133.75" departLane="best" from="756783039#13" to="958294762#0"/>
    <trip id="veh257" type="veh_passenger" depart="134.27" departLane="best" from="643432387#4" to="958294136#3"/>
    <trip id="veh258" type="veh_passenger" depart="134.79" departLane="best" from="756783039#13" to="916066724#1"/>
    <trip id="veh259" type="veh_passenger" depart="135.32" departLane="best" departSpeed="max" from="31712116#0" to="958294762#1"/>
    <trip id="veh260" type="veh_passenger" depart="135.84" departLane="best" from="330617202#1" to="643432387#1"/>
    <trip id="veh261" type="veh_passenger" depart="136.36" departLane="best" departSpeed="max" from="243323310" to="914828653"/>
    <trip id="veh262" type="veh_passenger" depart="136.88" departLane="best" departSpeed="max" from="31712116#0" to="582380623"/>
    <trip id="veh263" type="veh_passenger" depart="137.41" departLane="best" departSpeed="max" from="958294136#0" to="43544025#0"/>