<?xml version="1.0" encoding="UTF-8"?>

<!-- generated on 2025-03-16 22:44:16.333754 by osmWebWizard.py v1_21_0+0000-d7b3b481c43
<configuration>
    <net-file value="C:\Users\dionisis\Sumo\2025-03-16-22-44-13\osm.net.xml.gz"/>
    <output-trip-file value="C:\Users\dionisis\Sumo\2025-03-16-22-44-13\osm.passenger.trips.xml"/>
    <route-file value="C:\Users\dionisis\Sumo\2025-03-16-22-44-13\osm.passenger.rou.xml"/>
    <prefix value="veh"/>
    <trip-attributes value="departLane=&quot;best&quot;"/>
    <fringe-start-attributes value="departSpeed=&quot;max&quot;"/>
    <vehicle-class value="passenger"/>
    <lanes value="True"/>
    <fringe-factor value="5"/>
    <allow-fringe.min-length value="1000.0"/>
    <via-edge-types value="highway.motorway,highway.motorway_link,highway.trunk_link,highway.primary_link,highway.secondary_link,highway.tertiary_link"/>
    <min-distance value="300.0"/>
    <min-distance.fringe value="10.0"/>
    <remove-loops value="True"/>
    <validate value="True"/>
    <insertion-density value="1000.0"/>
</configuration>
-->

<!-- generated on 2025-03-16 22:44:15 by Eclipse SUMO duarouter Version 1.21.0
<duarouterConfiguration xmlns:xsi="http://www.w3.org/2001/XMLSchema-instance" xsi:noNamespaceSchemaLocation="http://sumo.dlr.de/xsd/duarouterConfiguration.xsd">

    <input>
        <net-file value="C:\Users\dionisis\Sumo\2025-03-16-22-44-13\osm.net.xml.gz"/>
        <route-files value="C:\Users\dionisis\Sumo\2025-03-16-22-44-13\osm.passenger.trips.xml"/>
    </input>

    <output>
        <output-file value="C:\Users\dionisis\Sumo\2025-03-16-22-44-13\osm.passenger.trips.xml.tmp"/>
        <alternatives-output value="NUL"/>
        <write-trips value="true"/>
    </output>

    <processing>
        <remove-loops value="true"/>
    </processing>

    <time>
        <begin value="0.0"/>
        <end value="3600.0"/>
    </time>

    <report>
        <no-warnings value="true"/>
        <ignore-errors value="true"/>
        <no-step-log value="true"/>
    </report>

</duarouterConfiguration>
-->

<routes xmlns:xsi="http://www.w3.org/2001/XMLSchema-instance" xsi:noNamespaceSchemaLocation="http://sumo.dlr.de/xsd/routes_file.xsd">
    <vType id="veh_passenger" vClass="passenger"/>
    <trip id="veh0" type="veh_passenger" depart="0.00" departLane="best" departSpeed="max" from="31758223#0" to="262612193#4"/>
    <trip id="veh1" type="veh_passenger" depart="0.22" departLane="best" from="31712410#4" to="31712340#7"/>
    <trip id="veh2" type="veh_passenger" depart="0.45" departLane="best" from="31758350#2" to="31758223#9"/>
    <trip id="veh3" type="veh_passenger" depart="0.67" departLane="best" from="542471400#2" to="31712340#6"/>
    <trip id="veh4" type="veh_passenger" depart="0.89" departLane="best" from="31712340#3" to="31712432#7"/>
    <trip id="veh5" type="veh_passenger" depart="1.11" departLane="best" departSpeed="max" from="262612193#0" to="31712340#5"/>
    <trip id="veh6" type="veh_passenger" depart="1.34" departLane="best" from="31758223#3" to="31751783#4"/>
    <trip id="veh7" type="veh_passenger" depart="1.56" departLane="best" departSpeed="max" from="28755426#0" to="28755426#2"/>
    <trip id="veh8" type="veh_passenger" depart="1.78" departLane="best" from="818743950#4" to="31758350#8"/>
    <trip id="veh9" type="veh_passenger" depart="2.00" departLane="best" departSpeed="max" from="31751783#0" to="818743950#7"/>
    <trip id="veh10" type="veh_passenger" depart="2.23" departLane="best" departSpeed="max" from="31712420#0" to="31751783#5"/>
    <trip id="veh11" type="veh_passenger" depart="2.45" departLane="best" departSpeed="max" from="542471400#0" to="31751783#7"/>
    <trip id="veh12" type="veh_passenger" depart="2.67" departLane="best" departSpeed="max" from="31758350#0" to="262612193#7"/>
    <trip id="veh13" type="veh_passenger" depart="2.89" departLane="best" from="31712340#4" to="31712410#6"/>
    <trip id="veh14" type="veh_passenger" depart="3.12" departLane="best" from="262612193#6" to="31712340#7"/>
    <trip id="veh15" type="veh_passenger" depart="3.34" departLane="best" departSpeed="max" from="28755426#0" to="31712410#4"/>
    <trip id="veh16" type="veh_passenger" depart="3.56" departLane="best" departSpeed="max" from="31758223#0" to="31712420#1"/>
    <trip id="veh17" type="veh_passenger" depart="3.79" departLane="best" departSpeed="max" from="31712420#0" to="31712340#6"/>
    <trip id="veh18" type="veh_passenger" depart="4.01" departLane="best" departSpeed="max" from="31712340#0" to="31758350#7"/>
    <trip id="veh20" type="veh_passenger" depart="4.45" departLane="best" departSpeed="max" from="31751783#0" to="31758223#9"/>
    <trip id="veh21" type="veh_passenger" depart="4.68" departLane="best" departSpeed="max" from="542471400#0" to="43455091#2"/>
    <trip id="veh22" type="veh_passenger" depart="4.90" departLane="best" departSpeed="max" from="31712411#0" to="31712410#2"/>
    <trip id="veh23" type="veh_passenger" depart="5.12" departLane="best" from="31712410#2" to="31712340#7"/>
    <trip id="veh24" type="veh_passenger" depart="5.34" departLane="best" departSpeed="max" from="31751783#0" to="31712410#1"/>
    <trip id="veh25" type="veh_passenger" depart="5.57" departLane="best" from="31751783#2" to="542471400#7"/>
    <trip id="veh26" type="veh_passenger" depart="5.79" departLane="best" from="31712420#1" to="31712340#7"/>
    <trip id="veh28" type="veh_passenger" depart="6.23" departLane="best" departSpeed="max" from="28755426#0" to="262612193#7"/>
    <trip id="veh29" type="veh_passenger" depart="6.46" departLane="best" departSpeed="max" from="28755426#0" to="31758223#5"/>
    <trip id="veh30" type="veh_passenger" depart="6.68" departLane="best" departSpeed="max" from="43455091#0" to="31712420#7"/>
    <trip id="veh32" type="veh_passenger" depart="7.13" departLane="best" departSpeed="max" from="262612193#0" to="31758350#6"/>
    <trip id="veh33" type="veh_passenger" depart="7.35" departLane="best" departSpeed="max" from="28755426#0" to="31712420#7"/>
    <trip id="veh34" type="veh_passenger" depart="7.57" departLane="best" departSpeed="max" from="542471400#0" to="31712410#2"/>
    <trip id="veh35" type="veh_passenger" depart="7.79" departLane="best" from="31751783#6" to="28755426#7"/>
    <trip id="veh37" type="veh_passenger" depart="8.24" departLane="best" departSpeed="max" from="43455091#0" to="31751783#1"/>
    <trip id="veh38" type="veh_passenger" depart="8.46" departLane="best" departSpeed="max" from="262612193#0" to="31712420#3"/>
    <trip id="veh39" type="veh_passenger" depart="8.68" departLane="best" departSpeed="max" from="262612193#0" to="818743950#2"/>
    <trip id="veh40" type="veh_passenger" depart="8.91" departLane="best" departSpeed="max" from="31712411#0" to="262612193#7"/>
    <trip id="veh41" type="veh_passenger" depart="9.13" departLane="best" departSpeed="max" from="542471400#0" to="818743950#4"/>
    <trip id="veh43" type="veh_passenger" depart="9.57" departLane="best" from="262612193#5" to="31758350#8"/>
    <trip id="veh45" type="veh_passenger" depart="10.02" departLane="best" departSpeed="max" from="31712432#0" to="31751783#5"/>
    <trip id="veh46" type="veh_passenger" depart="10.24" departLane="best" from="31712420#4" to="31712340#7"/>
    <trip id="veh47" type="veh_passenger" depart="10.47" departLane="best" departSpeed="max" from="31751783#0" to="31758350#8"/>
    <trip id="veh48" type="veh_passenger" depart="10.69" departLane="best" departSpeed="max" from="31712340#0" to="31712410#6"/>
    <trip id="veh50" type="veh_passenger" depart="11.13" departLane="best" from="31712420#6" to="31712432#7"/>
    <trip id="veh51" type="veh_passenger" depart="11.36" departLane="best" departSpeed="max" from="28755426#0" to="31712340#7"/>
    <trip id="veh52" type="veh_passenger" depart="11.58" departLane="best" from="31712411#2" to="31751783#7"/>
    <trip id="veh53" type="veh_passenger" depart="11.80" departLane="best" from="31712340#4" to="31712340#7"/>
    <trip id="veh54" type="veh_passenger" depart="12.02" departLane="best" from="31712340#4" to="542471400#7"/>
    <trip id="veh55" type="veh_passenger" depart="12.25" departLane="best" departSpeed="max" from="542471400#0" to="262612193#7"/>
    <trip id="veh56" type="veh_passenger" depart="12.47" departLane="best" from="31712340#5" to="31758223#9"/>
    <trip id="veh57" type="veh_passenger" depart="12.69" departLane="best" from="31712340#2" to="28755426#7"/>
    <trip id="veh58" type="veh_passenger" depart="12.91" departLane="best" departSpeed="max" from="28755426#0" to="31712420#7"/>
    <trip id="veh59" type="veh_passenger" depart="13.14" departLane="best" departSpeed="max" from="31758350#0" to="31758223#9"/>
    <trip id="veh60" type="veh_passenger" depart="13.36" departLane="best" departSpeed="max" from="542471400#0" to="31712410#0"/>
    <trip id="veh61" type="veh_passenger" depart="13.58" departLane="best" departSpeed="max" from="31712340#0" to="31712432#1"/>
    <trip id="veh62" type="veh_passenger" depart="13.81" departLane="best" departSpeed="max" from="31751783#0" to="262612193#7"/>
    <trip id="veh64" type="veh_passenger" depart="14.25" departLane="best" departSpeed="max" from="542471400#0" to="31712340#1"/>
    <trip id="veh65" type="veh_passenger" depart="14.47" departLane="best" departSpeed="max" from="31712432#0" to="31712340#7"/>
    <trip id="veh66" type="veh_passenger" depart="14.70" departLane="best" from="31712420#1" to="262612193#7"/>
    <trip id="veh67" type="veh_passenger" depart="14.92" departLane="best" departSpeed="max" from="31712420#0" to="818743950#7"/>
    <trip id="veh68" type="veh_passenger" depart="15.14" departLane="best" departSpeed="max" from="31712432#0" to="31712420#7"/>
    <trip id="veh69" type="veh_passenger" depart="15.36" departLane="best" from="818743950#1" to="818743950#7"/>
    <trip id="veh70" type="veh_passenger" depart="15.59" departLane="best" departSpeed="max" from="31751783#0" to="31758350#6"/>
    <trip id="veh71" type="veh_passenger" depart="15.81" departLane="best" from="28755426#5" to="31712410#6"/>
    <trip id="veh72" type="veh_passenger" depart="16.03" departLane="best" departSpeed="max" from="31751783#0" to="31758350#8"/>
    <trip id="veh73" type="veh_passenger" depart="16.25" departLane="best" from="28755426#5" to="818743950#6"/>
    <trip id="veh74" type="veh_passenger" depart="16.48" departLane="best" from="31751783#5" to="31758223#9"/>
    <trip id="veh75" type="veh_passenger" depart="16.70" departLane="best" from="31712340#5" to="28755426#6"/>
    <trip id="veh76" type="veh_passenger" depart="16.92" departLane="best" from="542471400#2" to="31712340#7"/>
    <trip id="veh78" type="veh_passenger" depart="17.37" departLane="best" from="31712420#3" to="31751783#7"/>
    <trip id="veh79" type="veh_passenger" depart="17.59" departLane="best" from="31712410#5" to="31712410#6"/>
    <trip id="veh80" type="veh_passenger" depart="17.81" departLane="best" departSpeed="max" from="31712411#0" to="31758350#8"/>
    <trip id="veh81" type="veh_passenger" depart="18.04" departLane="best" from="262612193#5" to="31712340#7"/>
    <trip id="veh82" type="veh_passenger" depart="18.26" departLane="best" from="542471400#1" to="542471400#6"/>
    <trip id="veh83" type="veh_passenger" depart="18.48" departLane="best" departSpeed="max" from="31712420#0" to="28755426#7"/>
    <trip id="veh84" type="veh_passenger" depart="18.70" departLane="best" departSpeed="max" from="31758223#0" to="818743950#7"/>
    <trip id="veh85" type="veh_passenger" depart="18.93" departLane="best" from="31758223#3" to="262612193#2"/>
    <trip id="veh86" type="veh_passenger" depart="19.15" departLane="best" from="43455091#2" to="31712410#6"/>
    <trip id="veh87" type="veh_passenger" depart="19.37" departLane="best" from="31758223#5" to="818743950#3"/>
    <trip id="veh88" type="veh_passenger" depart="19.59" departLane="best" from="28755426#1" to="28755426#6"/>
    <trip id="veh89" type="veh_passenger" depart="19.82" departLane="best" departSpeed="max" from="28755426#0" to="31751783#5"/>
    <trip id="veh90" type="veh_passenger" depart="20.04" departLane="best" departSpeed="max" from="31758350#0" to="31712340#6"/>
    <trip id="veh91" type="veh_passenger" depart="20.26" departLane="best" departSpeed="max" from="31758223#0" to="31712410#2"/>
    <trip id="veh92" type="veh_passenger" depart="20.49" departLane="best" departSpeed="max" from="31712432#0" to="542471400#7"/>
    <trip id="veh93" type="veh_passenger" depart="20.71" departLane="best" departSpeed="max" from="542471400#0" to="28755426#2"/>
    <trip id="veh94" type="veh_passenger" depart="20.93" departLane="best" departSpeed="max" from="262612193#0" to="43455091#1"/>
    <trip id="veh95" type="veh_passenger" depart="21.15" departLane="best" departSpeed="max" from="31758223#0" to="31712410#1"/>
    <trip id="veh96" type="veh_passenger" depart="21.38" departLane="best" from="31758350#3" to="31751783#5"/>
    <trip id="veh97" type="veh_passenger" depart="21.60" departLane="best" from="262612193#6" to="542471400#7"/>
    <trip id="veh98" type="veh_passenger" depart="21.82" departLane="best" from="542471400#5" to="31751783#4"/>
    <trip id="veh99" type="veh_passenger" depart="22.04" departLane="best" from="43455091#6" to="31751783#7"/>
    <trip id="veh100" type="veh_passenger" depart="22.27" departLane="best" from="28755426#3" to="28755426#7"/>
    <trip id="veh101" type="veh_passenger" depart="22.49" departLane="best" departSpeed="max" from="31712411#0" to="542471400#7"/>
    <trip id="veh102" type="veh_passenger" depart="22.71" departLane="best" departSpeed="max" from="43455091#0" to="542471400#4"/>
    <trip id="veh103" type="veh_passenger" depart="22.93" departLane="best" from="542471400#4" to="31712340#6"/>
    <trip id="veh104" type="veh_passenger" depart="23.16" departLane="best" departSpeed="max" from="542471400#0" to="818743950#7"/>
    <trip id="veh105" type="veh_passenger" depart="23.38" departLane="best" from="818743950#4" to="542471400#7"/>
    <trip id="veh106" type="veh_passenger" depart="23.60" departLane="best" departSpeed="max" from="262612193#0" to="31758350#8"/>
    <trip id="veh107" type="veh_passenger" depart="23.83" departLane="best" departSpeed="max" from="43455091#0" to="542471400#4"/>
    <trip id="veh108" type="veh_passenger" depart="24.05" departLane="best" departSpeed="max" from="43455091#0" to="28755426#5"/>
    <trip id="veh109" type="veh_passenger" depart="24.27" departLane="best" departSpeed="max" from="542471400#0" to="542471400#4"/>
    <trip id="veh110" type="veh_passenger" depart="24.49" departLane="best" from="31712340#3" to="43455091#7"/>
    <trip id="veh111" type="veh_passenger" depart="24.72" departLane="best" departSpeed="max" from="31712432#0" to="31712410#6"/>
    <trip id="veh112" type="veh_passenger" depart="24.94" departLane="best" departSpeed="max" from="43455091#0" to="31712340#7"/>
    <trip id="veh113" type="veh_passenger" depart="25.16" departLane="best" departSpeed="max" from="262612193#0" to="31712340#4"/>
    <trip id="veh114" type="veh_passenger" depart="25.38" departLane="best" from="31712411#1" to="542471400#4"/>
    <trip id="veh115" type="veh_passenger" depart="25.61" departLane="best" from="818743950#2" to="31712410#5"/>
    <trip id="veh116" type="veh_passenger" depart="25.83" departLane="best" departSpeed="max" from="31758223#0" to="31712420#6"/>
    <trip id="veh117" type="veh_passenger" depart="26.05" departLane="best" departSpeed="max" from="818743950#0" to="28755426#6"/>
    <trip id="veh118" type="veh_passenger" depart="26.27" departLane="best" departSpeed="max" from="28755426#0" to="31712420#7"/>
    <trip id="veh119" type="veh_passenger" depart="26.50" departLane="best" departSpeed="max" from="31712420#0" to="31751783#7"/>
    <trip id="veh120" type="veh_passenger" depart="26.72" departLane="best" departSpeed="max" from="262612193#0" to="818743950#2"/>
    <trip id="veh121" type="veh_passenger" depart="26.94" departLane="best" departSpeed="max" from="31751783#0" to="31758350#6"/>
    <trip id="veh122" type="veh_passenger" depart="27.17" departLane="best" from="31758350#3" to="31758223#9"/>
    <trip id="veh123" type="veh_passenger" depart="27.39" departLane="best" departSpeed="max" from="31712420#0" to="262612193#7"/>
    <trip id="veh125" type="veh_passenger" depart="27.83" departLane="best" departSpeed="max" from="31712411#0" to="31712420#7"/>
    <trip id="veh126" type="veh_passenger" depart="28.06" departLane="best" from="31712420#1" to="31712410#6"/>
    <trip id="veh127" type="veh_passenger" depart="28.28" departLane="best" departSpeed="max" from="28755426#0" to="31712420#7"/>
    <trip id="veh128" type="veh_passenger" depart="28.50" departLane="best" departSpeed="max" from="818743950#0" to="31758223#9"/>
    <trip id="veh129" type="veh_passenger" depart="28.72" departLane="best" departSpeed="max" from="31712411#0" to="31751783#4"/>
    <trip id="veh130" type="veh_passenger" depart="28.95" departLane="best" departSpeed="max" from="262612193#0" to="31712410#6"/>
    <trip id="veh131" type="veh_passenger" depart="29.17" departLane="best" from="31712420#5" to="31751783#7"/>
    <trip id="veh132" type="veh_passenger" depart="29.39" departLane="best" from="31712420#6" to="31712340#7"/>
    <trip id="veh133" type="veh_passenger" depart="29.61" departLane="best" departSpeed="max" from="31712432#0" to="542471400#7"/>
    <trip id="veh134" type="veh_passenger" depart="29.84" departLane="best" departSpeed="max" from="43455091#0" to="31712340#1"/>
    <trip id="veh136" type="veh_passenger" depart="30.28" departLane="best" departSpeed="max" from="31758223#0" to="31712411#2"/>
    <trip id="veh137" type="veh_passenger" depart="30.51" departLane="best" from="43455091#2" to="31758350#8"/>
    <trip id="veh138" type="veh_passenger" depart="30.73" departLane="best" from="31758223#6" to="31712340#7"/>
    <trip id="veh139" type="veh_passenger" depart="30.95" departLane="best" departSpeed="max" from="31712340#0" to="262612193#4"/>
    <trip id="veh140" type="veh_passenger" depart="31.17" departLane="best" departSpeed="max" from="542471400#0" to="262612193#7"/>
    <trip id="veh142" type="veh_passenger" depart="31.62" departLane="best" from="31712432#1" to="31712340#7"/>
    <trip id="veh143" type="veh_passenger" depart="31.84" departLane="best" from="31758223#4" to="262612193#1"/>
    <trip id="veh144" type="veh_passenger" depart="32.06" departLane="best" departSpeed="max" from="28755426#0" to="31712420#7"/>
    <trip id="veh145" type="veh_passenger" depart="32.29" departLane="best" departSpeed="max" from="31712340#0" to="818743950#6"/>
    <trip id="veh146" type="veh_passenger" depart="32.51" departLane="best" from="31712432#4" to="262612193#7"/>
    <trip id="veh148" type="veh_passenger" depart="32.95" departLane="best" from="31758223#5" to="818743950#7"/>
    <trip id="veh149" type="veh_passenger" depart="33.18" departLane="best" from="31751783#5" to="818743950#5"/>
    <trip id="veh150" type="veh_passenger" depart="33.40" departLane="best" departSpeed="max" from="31758350#0" to="31712432#7"/>
    <trip id="veh151" type="veh_passenger" depart="33.62" departLane="best" from="542471400#4" to="31758350#8"/>
    <trip id="veh152" type="veh_passenger" depart="33.84" departLane="best" from="31712340#6" to="31758223#6"/>
    <trip id="veh154" type="veh_passenger" depart="34.29" departLane="best" departSpeed="max" from="31758223#0" to="31712410#4"/>
    <trip id="veh155" type="veh_passenger" depart="34.51" departLane="best" from="262612193#6" to="31712410#6"/>
    <trip id="veh156" type="veh_passenger" depart="34.74" departLane="best" from="31712410#4" to="31712410#6"/>
    <trip id="veh157" type="veh_passenger" depart="34.96" departLane="best" departSpeed="max" from="31751783#0" to="28755426#7"/>
    <trip id="veh158" type="veh_passenger" depart="35.18" departLane="best" departSpeed="max" from="31758350#0" to="262612193#7"/>
    <trip id="veh159" type="veh_passenger" depart="35.40" departLane="best" from="31712420#3" to="542471400#7"/>
    <trip id="veh160" type="veh_passenger" depart="35.63" departLane="best" departSpeed="max" from="542471400#0" to="31758350#8"/>
    <trip id="veh161" type="veh_passenger" depart="35.85" departLane="best" departSpeed="max" from="31712420#0" to="262612193#1"/>
    <trip id="veh162" type="veh_passenger" depart="36.07" departLane="best" from="31712411#5" to="31758350#8"/>
    <trip id="veh163" type="veh_passenger" depart="36.29" departLane="best" departSpeed="max" from="542471400#0" to="818743950#5"/>
    <trip id="veh164" type="veh_passenger" depart="36.52" departLane="best" from="31712420#3" to="31758350#8"/>
    <trip id="veh166" type="veh_passenger" depart="36.96" departLane="best" from="31712340#3" to="31712340#7"/>
    <trip id="veh167" type="veh_passenger" depart="37.18" departLane="best" from="31712411#2" to="31758223#9"/>
    <trip id="veh169" type="veh_passenger" depart="37.63" departLane="best" departSpeed="max" from="31712432#0" to="28755426#7"/>
    <trip id="veh170" type="veh_passenger" depart="37.85" departLane="best" departSpeed="max" from="31758223#0" to="262612193#4"/>
    <trip id="veh171" type="veh_passenger" depart="38.08" departLane="best" departSpeed="max" from="31712420#0" to="31751783#7"/>
    <trip id="veh172" type="veh_passenger" depart="38.30" departLane="best" departSpeed="max" from="262612193#0" to="31758223#7"/>
    <trip id="veh173" type="veh_passenger" depart="38.52" departLane="best" from="31758350#6" to="43455091#7"/>
    <trip id="veh174" type="veh_passenger" depart="38.74" departLane="best" from="31712410#0" to="262612193#7"/>
    <trip id="veh175" type="veh_passenger" depart="38.97" departLane="best" departSpeed="max" from="262612193#0" to="31751783#2"/>
    <trip id="veh176" type="veh_passenger" depart="39.19" departLane="best" from="31758223#3" to="31758350#8"/>
    <trip id="veh177" type="veh_passenger" depart="39.41" departLane="best" departSpeed="max" from="818743950#0" to="31712340#5"/>
    <trip id="veh178" type="veh_passenger" depart="39.63" departLane="best" departSpeed="max" from="262612193#0" to="28755426#7"/>
    <trip id="veh179" type="veh_passenger" depart="39.86" departLane="best" departSpeed="max" from="28755426#0" to="31758223#9"/>
    <trip id="veh180" type="veh_passenger" depart="40.08" departLane="best" departSpeed="max" from="31751783#0" to="31712340#7"/>
    <trip id="veh181" type="veh_passenger" depart="40.30" departLane="best" departSpeed="max" from="31758350#0" to="31758350#8"/>
    <trip id="veh183" type="veh_passenger" depart="40.75" departLane="best" departSpeed="max" from="28755426#0" to="262612193#4"/>
    <trip id="veh184" type="veh_passenger" depart="40.97" departLane="best" departSpeed="max" from="31712411#0" to="31758223#9"/>
    <trip id="veh185" type="veh_passenger" depart="41.19" departLane="best" from="818743950#1" to="31712420#5"/>
    <trip id="veh186" type="veh_passenger" depart="41.42" departLane="best" departSpeed="max" from="31758350#0" to="262612193#7"/>
    <trip id="veh187" type="veh_passenger" depart="41.64" departLane="best" departSpeed="max" from="28755426#0" to="43455091#1"/>
    <trip id="veh188" type="veh_passenger" depart="41.86" departLane="best" departSpeed="max" from="542471400#0" to="31751783#7"/>
    <trip id="veh189" type="veh_passenger" depart="42.08" departLane="best" departSpeed="max" from="28755426#0" to="818743950#7"/>
    <trip id="veh190" type="veh_passenger" depart="42.31" departLane="best" departSpeed="max" from="43455091#0" to="31712340#5"/>
    <trip id="veh191" type="veh_passenger" depart="42.53" departLane="best" departSpeed="max" from="28755426#0" to="818743950#6"/>
    <trip id="veh192" type="veh_passenger" depart="42.75" departLane="best" departSpeed="max" from="31758223#0" to="43455091#7"/>
    <trip id="veh193" type="veh_passenger" depart="42.97" departLane="best" departSpeed="max" from="31758350#0" to="31712420#7"/>
    <trip id="veh194" type="veh_passenger" depart="43.20" departLane="best" from="31758350#2" to="818743950#7"/>
    <trip id="veh195" type="veh_passenger" depart="43.42" departLane="best" from="31712410#2" to="43455091#7"/>
    <trip id="veh196" type="veh_passenger" depart="43.64" departLane="best" departSpeed="max" from="31751783#0" to="31751783#4"/>
    <trip id="veh197" type="veh_passenger" depart="43.86" departLane="best" from="31712420#5" to="31758350#8"/>
    <trip id="veh198" type="veh_passenger" depart="44.09" departLane="best" from="542471400#1" to="31712340#7"/>
    <trip id="veh199" type="veh_passenger" depart="44.31" departLane="best" departSpeed="max" from="31712420#0" to="262612193#4"/>
    <trip id="veh200" type="veh_passenger" depart="44.53" departLane="best" departSpeed="max" from="542471400#0" to="31712340#3"/>
    <trip id="veh201" type="veh_passenger" depart="44.76" departLane="best" from="31712340#2" to="43455091#6"/>
    <trip id="veh202" type="veh_passenger" depart="44.98" departLane="best" from="31712411#4" to="542471400#7"/>
    <trip id="veh203" type="veh_passenger" depart="45.20" departLane="best" departSpeed="max" from="31758350#0" to="31712410#4"/>
    <trip id="veh204" type="veh_passenger" depart="45.42" departLane="best" departSpeed="max" from="262612193#0" to="818743950#5"/>
    <trip id="veh205" type="veh_passenger" depart="45.65" departLane="best" departSpeed="max" from="31712432#0" to="31758350#8"/>
    <trip id="veh206" type="veh_passenger" depart="45.87" departLane="best" departSpeed="max" from="28755426#0" to="31712340#7"/>
    <trip id="veh207" type="veh_passenger" depart="46.09" departLane="best" from="28755426#3" to="31712420#7"/>
    <trip id="veh208" type="veh_passenger" depart="46.31" departLane="best" departSpeed="max" from="31758350#0" to="31712410#4"/>
    <trip id="veh209" type="veh_passenger" depart="46.54" departLane="best" from="31712410#0" to="28755426#7"/>
    <trip id="veh210" type="veh_passenger" depart="46.76" departLane="best" departSpeed="max" from="31712340#0" to="28755426#6"/>
    <trip id="veh211" type="veh_passenger" depart="46.98" departLane="best" departSpeed="max" from="31751783#0" to="31758350#8"/>
    <trip id="veh212" type="veh_passenger" depart="47.20" departLane="best" departSpeed="max" from="31712340#0" to="31712340#7"/>
    <trip id="veh213" type="veh_passenger" depart="47.43" departLane="best" from="818743950#3" to="31712432#7"/>
    <trip id="veh214" type="veh_passenger" depart="47.65" departLane="best" departSpeed="max" from="31712340#0" to="31712340#7"/>
    <trip id="veh215" type="veh_passenger" depart="47.87" departLane="best" departSpeed="max" from="31712340#0" to="262612193#2"/>
    <trip id="veh216" type="veh_passenger" depart="48.10" departLane="best" departSpeed="max" from="31751783#0" to="31712410#4"/>
    <trip id="veh217" type="veh_passenger" depart="48.32" departLane="best" departSpeed="max" from="31758350#0" to="28755426#7"/>
    <trip id="veh218" type="veh_passenger" depart="48.54" departLane="best" departSpeed="max" from="542471400#0" to="31712432#7"/>
    <trip id="veh219" type="veh_passenger" depart="48.76" departLane="best" departSpeed="max" from="542471400#0" to="31751783#7"/>
    <trip id="veh220" type="veh_passenger" depart="48.99" departLane="best" departSpeed="max" from="31712432#0" to="31712420#7"/>
    <trip id="veh221" type="veh_passenger" depart="49.21" departLane="best" departSpeed="max" from="818743950#0" to="28755426#5"/>
    <trip id="veh222" type="veh_passenger" depart="49.43" departLane="best" from="262612193#3" to="28755426#7"/>
    <trip id="veh223" type="veh_passenger" depart="49.65" departLane="best" departSpeed="max" from="31751783#0" to="31712410#6"/>
    <trip id="veh226" type="veh_passenger" depart="50.32" departLane="best" departSpeed="max" from="43455091#0" to="31712340#7"/>
    <trip id="veh228" type="veh_passenger" depart="50.77" departLane="best" departSpeed="max" from="31758223#0" to="31758223#3"/>
    <trip id="veh229" type="veh_passenger" depart="50.99" departLane="best" from="31712340#1" to="31712340#7"/>
    <trip id="veh230" type="veh_passenger" depart="51.21" departLane="best" departSpeed="max" from="262612193#0" to="31712432#1"/>
    <trip id="veh231" type="veh_passenger" depart="51.44" departLane="best" from="31751783#4" to="31712410#6"/>
    <trip id="veh232" type="veh_passenger" depart="51.66" departLane="best" departSpeed="max" from="31758350#0" to="31712432#2"/>
    <trip id="veh233" type="veh_passenger" depart="51.88" departLane="best" from="31758223#8" to="818743950#1"/>
    <trip id="veh234" type="veh_passenger" depart="52.10" departLane="best" departSpeed="max" from="43455091#0" to="31758223#5"/>
    <trip id="veh235" type="veh_passenger" depart="52.33" departLane="best" from="31758223#4" to="818743950#3"/>
    <trip id="veh236" type="veh_passenger" depart="52.55" departLane="best" from="31758223#3" to="542471400#7"/>
    <trip id="veh237" type="veh_passenger" depart="52.77" departLane="best" from="43455091#3" to="262612193#7"/>
    <trip id="veh238" type="veh_passenger" depart="52.99" departLane="best" departSpeed="max" from="31712340#0" to="31712410#6"/>
    <trip id="veh239" type="veh_passenger" depart="53.22" departLane="best" from="31758350#5" to="31751783#7"/>
    <trip id="veh240" type="veh_passenger" depart="53.44" departLane="best" from="31712432#1" to="262612193#7"/>
    <trip id="veh241" type="veh_passenger" depart="53.66" departLane="best" from="262612193#1" to="31712420#7"/>
    <trip id="veh242" type="veh_passenger" depart="53.88" departLane="best" departSpeed="max" from="31712411#0" to="31712410#0"/>
    <trip id="veh243" type="veh_passenger" depart="54.11" departLane="best" departSpeed="max" from="28755426#0" to="818743950#6"/>
    <trip id="veh244" type="veh_passenger" depart="54.33" departLane="best" from="43455091#6" to="31751783#7"/>
    <trip id="veh245" type="veh_passenger" depart="54.55" departLane="best" departSpeed="max" from="818743950#0" to="818743950#7"/>